Version 4
SHEET 1 1164 680
WIRE 720 288 720 192
FLAG 128 160 VIN1
IOPIN 128 160 In
FLAG 128 224 VIN2
IOPIN 128 224 In
FLAG 720 352 VIN3
IOPIN 720 352 In
FLAG 320 96 VDD
IOPIN 320 96 In
FLAG 912 224 VDD
IOPIN 912 224 In
FLAG 1072 320 VOUT
IOPIN 1072 320 Out
FLAG 608 128 VDD
IOPIN 608 128 In
SYMBOL nor 320 192 R0
SYMATTR InstName X1
SYMBOL nor-inverter 608 192 R0
SYMATTR InstName X2
SYMBOL nor 912 320 R0
SYMATTR InstName X3
