Version 4
SHEET 1 1628 680
FLAG 0 128 VIN1
IOPIN 0 128 In
FLAG 0 192 VIN2
IOPIN 0 192 In
FLAG 592 224 VIN3
IOPIN 592 224 In
FLAG 1184 256 VIN4
IOPIN 1184 256 In
FLAG 192 64 VDD
IOPIN 192 64 In
FLAG 784 96 VDD
IOPIN 784 96 In
FLAG 480 96 VDD
IOPIN 480 96 In
FLAG 1072 128 VDD
IOPIN 1072 128 In
FLAG 1376 128 VDD
IOPIN 1376 128 In
FLAG 1536 224 VOUT
IOPIN 1536 224 Out
SYMBOL nor 192 160 R0
SYMATTR InstName X1
SYMBOL nor-inverter 480 160 R0
SYMATTR InstName X2
SYMBOL nor 784 192 R0
SYMATTR InstName X3
SYMBOL nor-inverter 1072 192 R0
SYMATTR InstName X4
SYMBOL nor 1376 224 R0
SYMATTR InstName X5
