Version 4
SHEET 1 880 680
WIRE 336 -32 336 -48
WIRE 432 -32 432 -48
WIRE 544 -32 544 -48
WIRE 432 16 432 -32
WIRE 336 32 336 -32
WIRE 544 32 544 -32
WIRE -112 64 -112 32
WIRE 80 64 -112 64
WIRE -192 96 -192 -80
WIRE 80 96 -192 96
WIRE 336 96 336 32
WIRE 336 96 240 96
WIRE -272 128 -272 -176
WIRE 80 128 -272 128
WIRE 432 128 432 16
WIRE 432 128 240 128
WIRE 80 160 -368 160
WIRE 544 160 544 32
WIRE 544 160 240 160
WIRE 80 192 -368 192
WIRE 720 192 240 192
WIRE 752 192 720 192
WIRE 80 224 -272 224
WIRE 544 224 240 224
WIRE 80 256 -176 256
WIRE 432 256 240 256
WIRE 80 288 -96 288
WIRE 336 288 240 288
WIRE -96 336 -96 288
WIRE 336 352 336 288
WIRE -176 416 -176 256
WIRE 544 416 544 224
WIRE 336 432 336 352
WIRE 432 448 432 256
WIRE 336 480 336 432
WIRE 432 512 432 448
WIRE -272 528 -272 224
WIRE 544 528 544 416
FLAG -112 -48 0
FLAG -192 -160 0
FLAG -272 -256 0
FLAG -368 80 0
FLAG -368 272 0
FLAG -272 608 0
FLAG -176 496 0
FLAG -96 416 0
FLAG 272 432 0
FLAG 256 352 0
FLAG 272 -32 0
FLAG 256 32 0
FLAG 368 512 0
FLAG 352 448 0
FLAG 464 416 0
FLAG 480 528 0
FLAG 368 -32 0
FLAG 352 16 0
FLAG 480 -32 0
FLAG 464 32 0
FLAG 816 192 0
FLAG 720 272 0
FLAG 160 -48 0
SYMBOL bcd 160 176 R0
SYMATTR InstName X1
SYMBOL voltage -368 176 R180
WINDOW 0 24 96 Left 2
WINDOW 3 24 16 Left 2
WINDOW 123 0 0 Left 0
WINDOW 39 0 0 Left 0
SYMATTR InstName V1
SYMATTR Value 1
SYMBOL voltage -368 176 R0
WINDOW 123 0 0 Left 0
WINDOW 39 0 0 Left 0
SYMATTR InstName V2
SYMATTR Value 0
SYMBOL voltage -272 512 R0
WINDOW 123 0 0 Left 0
WINDOW 39 0 0 Left 0
SYMATTR InstName V3
SYMATTR Value 1
SYMBOL voltage -176 400 R0
WINDOW 123 0 0 Left 0
WINDOW 39 0 0 Left 0
SYMATTR InstName V4
SYMATTR Value 1
SYMBOL voltage -96 320 R0
WINDOW 123 0 0 Left 0
WINDOW 39 0 0 Left 0
SYMATTR InstName V5
SYMATTR Value 1
SYMBOL voltage -272 -160 R180
WINDOW 0 24 96 Left 2
WINDOW 3 24 16 Left 2
WINDOW 123 0 0 Left 0
WINDOW 39 0 0 Left 0
SYMATTR InstName V6
SYMATTR Value 1
SYMBOL voltage -192 -64 R180
WINDOW 0 24 96 Left 2
WINDOW 3 24 16 Left 2
WINDOW 123 0 0 Left 0
WINDOW 39 0 0 Left 0
SYMATTR InstName V7
SYMATTR Value 0
SYMBOL voltage -112 48 R180
WINDOW 0 24 96 Left 2
WINDOW 3 24 16 Left 2
WINDOW 123 0 0 Left 0
WINDOW 39 0 0 Left 0
SYMATTR InstName V8
SYMATTR Value 0
SYMBOL res 352 16 R90
WINDOW 0 0 56 VBottom 2
WINDOW 3 32 56 VTop 2
SYMATTR InstName R1
SYMATTR Value 100k
SYMBOL res 352 336 R90
WINDOW 0 0 56 VBottom 2
WINDOW 3 32 56 VTop 2
SYMATTR InstName R2
SYMATTR Value 100k
SYMBOL res 448 432 R90
WINDOW 0 0 56 VBottom 2
WINDOW 3 32 56 VTop 2
SYMATTR InstName R3
SYMATTR Value 100k
SYMBOL res 560 400 R90
WINDOW 0 0 56 VBottom 2
WINDOW 3 32 56 VTop 2
SYMATTR InstName R4
SYMATTR Value 100k
SYMBOL res 448 0 R90
WINDOW 0 0 56 VBottom 2
WINDOW 3 32 56 VTop 2
SYMATTR InstName R5
SYMATTR Value 100k
SYMBOL res 560 16 R90
WINDOW 0 0 56 VBottom 2
WINDOW 3 32 56 VTop 2
SYMATTR InstName R6
SYMATTR Value 100k
SYMBOL cap 336 416 R90
WINDOW 0 0 32 VBottom 2
WINDOW 3 32 32 VTop 2
SYMATTR InstName C1
SYMATTR Value 100f
SYMBOL cap 336 -48 R90
WINDOW 0 0 32 VBottom 2
WINDOW 3 32 32 VTop 2
SYMATTR InstName C2
SYMATTR Value 100f
SYMBOL cap 432 -48 R90
WINDOW 0 0 32 VBottom 2
WINDOW 3 32 32 VTop 2
SYMATTR InstName C3
SYMATTR Value 100f
SYMBOL cap 544 -48 R90
WINDOW 0 0 32 VBottom 2
WINDOW 3 32 32 VTop 2
SYMATTR InstName C4
SYMATTR Value 100f
SYMBOL cap 432 496 R90
WINDOW 0 0 32 VBottom 2
WINDOW 3 32 32 VTop 2
SYMATTR InstName C5
SYMATTR Value 100f
SYMBOL cap 544 512 R90
WINDOW 0 0 32 VBottom 2
WINDOW 3 32 32 VTop 2
SYMATTR InstName C6
SYMATTR Value 100f
SYMBOL cap 816 176 R90
WINDOW 0 0 32 VBottom 2
WINDOW 3 32 32 VTop 2
SYMATTR InstName C7
SYMATTR Value 100f
SYMBOL res 704 176 R0
SYMATTR InstName R7
SYMATTR Value 100k
SYMBOL voltage 160 48 R180
WINDOW 0 24 96 Left 2
WINDOW 3 24 16 Left 2
WINDOW 123 0 0 Left 0
WINDOW 39 0 0 Left 0
SYMATTR InstName V9
SYMATTR Value 1
TEXT -424 576 Left 2 !.tran 0 32n 0 1p
TEXT -432 664 Left 2 !.include 90nm_bulk.txt
