Version 4
SHEET 1 880 680
WIRE 96 160 0 160
FLAG 96 304 0
FLAG 0 160 VIN
IOPIN 0 160 In
FLAG 288 96 VDD
IOPIN 288 96 In
FLAG 448 192 VOUT
IOPIN 448 192 Out
SYMBOL nor 288 192 R0
SYMATTR InstName X1
SYMBOL voltage 96 208 R0
WINDOW 123 0 0 Left 0
WINDOW 39 0 0 Left 0
SYMATTR InstName V2
SYMATTR Value 0
