Version 4
SHEET 1 880 680
WIRE 384 160 384 128
WIRE 192 224 48 224
WIRE 672 256 544 256
WIRE 768 256 672 256
WIRE 192 288 48 288
FLAG 384 48 0
FLAG -32 224 0
FLAG -32 288 0
FLAG 768 320 0
FLAG 672 336 0
SYMBOL voltage 64 224 R90
WINDOW 0 -32 56 VBottom 2
WINDOW 3 46 -119 VRight 0
WINDOW 123 0 0 Left 0
WINDOW 39 0 0 Left 0
SYMATTR InstName V1
SYMATTR Value PULSE(0 1 10n 10p 10p 2n 4n)
SYMBOL voltage 64 288 R90
WINDOW 0 -32 56 VBottom 2
WINDOW 3 38 -15 VRight 0
WINDOW 123 0 0 Left 0
WINDOW 39 0 0 Left 0
SYMATTR InstName V2
SYMATTR Value PULSE(0 1 10n 10p 10p 4n 8n)
SYMBOL voltage 384 144 R180
WINDOW 0 24 96 Left 2
WINDOW 3 24 16 Left 2
WINDOW 123 0 0 Left 0
WINDOW 39 0 0 Left 0
SYMATTR InstName V3
SYMATTR Value 1
SYMBOL res 656 240 R0
WINDOW 0 40 47 Left 2
SYMATTR InstName R1
SYMATTR Value 100k
SYMBOL cap 752 256 R0
SYMATTR InstName C1
SYMATTR Value 100f
SYMBOL nor 384 256 R0
SYMATTR InstName X1
TEXT -64 40 Left 2 !.tran 40n
TEXT -56 8 Left 2 !.include 90nm_bulk.txt
